@<TRIPOS>MOLECULE
MOL
   26    25     1     0     0
SMALL
bcc
@<TRIPOS>ATOM
      1 C1          4.4800    0.2660    0.0000 CX        1 MOL    -0.092100 
      2 H2          5.3460   -0.3890    0.0000 HC        1 MOL     0.032700 
      3 H3          4.5480    0.9040    0.8770 HC        1 MOL     0.032700 
      4 H4          4.5480    0.9040   -0.8770 HC        1 MOL     0.032700 
      5 C5         -4.4800   -0.2660    0.0000 CX        1 MOL    -0.092100 
      6 H6         -4.5480   -0.9040    0.8770 HC        1 MOL     0.032700 
      7 H7         -4.5480   -0.9040   -0.8770 HC        1 MOL     0.032700 
      8 H8         -5.3460    0.3890    0.0000 HC        1 MOL     0.032700 
      9 C9          3.1780   -0.5350    0.0000 CX        1 MOL    -0.080400 
     10 H10         3.1570   -1.1870    0.8700 HC        1 MOL     0.038700 
     11 H11         3.1570   -1.1870   -0.8700 HC        1 MOL     0.038700 
     12 C12        -3.1780    0.5350    0.0000 CX        1 MOL    -0.080400 
     13 H13        -3.1570    1.1870   -0.8700 HC        1 MOL     0.038700 
     14 H14        -3.1560    1.1870    0.8700 HC        1 MOL     0.038700 
     15 C15         1.9310    0.3510   -0.0000 CX        1 MOL    -0.079400 
     16 H16         1.9550    1.0040   -0.8710 HC        1 MOL     0.039700 
     17 H17         1.9550    1.0040    0.8710 HC        1 MOL     0.039700 
     18 C18         0.6230   -0.4430   -0.0000 CX        1 MOL    -0.079400 
     19 H19         0.6000   -1.0970    0.8710 HC        1 MOL     0.039700 
     20 H20         0.6000   -1.0970   -0.8710 HC        1 MOL     0.039700 
     21 C21        -0.6230    0.4430   -0.0000 CX        1 MOL    -0.079400 
     22 H22        -0.6000    1.0970    0.8710 HC        1 MOL     0.039700 
     23 H23        -0.6000    1.0970   -0.8710 HC        1 MOL     0.039700 
     24 C24        -1.9310   -0.3510   -0.0000 CX        1 MOL    -0.079400 
     25 H25        -1.9550   -1.0040   -0.8710 HC        1 MOL     0.039700 
     26 H26        -1.9550   -1.0040    0.8710 HC        1 MOL     0.039700 
@<TRIPOS>BOND
     1    1    2 1   
     2    1    3 1   
     3    1    4 1   
     4    1    9 1   
     5    5    6 1   
     6    5    7 1   
     7    5    8 1   
     8    5   12 1   
     9    9   10 1   
    10    9   11 1   
    11    9   15 1   
    12   12   13 1   
    13   12   14 1   
    14   12   24 1   
    15   15   16 1   
    16   15   17 1   
    17   15   18 1   
    18   18   19 1   
    19   18   20 1   
    20   18   21 1   
    21   21   22 1   
    22   21   23 1   
    23   21   24 1   
    24   24   25 1   
    25   24   26 1   
@<TRIPOS>SUBSTRUCTURE
     1 MOL         1 TEMP              0 ****  ****    0 ROOT
